*SPEF "ieee 1481-1999"
*DESIGN "gpio"
*DATE "11:11:11 Fri 11 11, 1111"
*VENDOR "OpenRCX"
*PROGRAM "Parallel Extraction"
*VERSION "1.0"
*DESIGN_FLOW "NAME_SCOPE LOCAL" "PIN_CAP NONE"
*DIVIDER /
*DELIMITER :
*BUS_DELIMITER []
*T_UNIT 1 NS
*C_UNIT 1 PF
*R_UNIT 1 OHM
*L_UNIT 1 HENRY

*NAME_MAP
*1 clk_i
*2 io_in[0]
*3 io_in[10]
*4 io_in[11]
*5 io_in[12]
*6 io_in[13]
*7 io_in[14]
*8 io_in[15]
*9 io_in[16]
*10 io_in[17]
*11 io_in[18]
*12 io_in[19]
*13 io_in[1]
*14 io_in[20]
*15 io_in[21]
*16 io_in[22]
*17 io_in[23]
*18 io_in[24]
*19 io_in[25]
*20 io_in[26]
*21 io_in[27]
*22 io_in[28]
*23 io_in[29]
*24 io_in[2]
*25 io_in[30]
*26 io_in[31]
*27 io_in[32]
*28 io_in[33]
*29 io_in[34]
*30 io_in[35]
*31 io_in[36]
*32 io_in[37]
*33 io_in[3]
*34 io_in[4]
*35 io_in[5]
*36 io_in[6]
*37 io_in[7]
*38 io_in[8]
*39 io_in[9]
*40 net30
*41 net40
*42 net41
*43 net42
*44 net43
*45 net44
*46 net45
*47 net46
*48 net47
*49 net48
*50 net49
*51 net31
*52 net50
*53 net51
*54 net52
*55 net53
*56 net54
*57 net55
*58 net56
*59 net57
*60 net58
*61 net59
*62 net32
*63 net60
*64 net61
*65 net62
*66 net63
*67 net64
*68 net65
*69 net66
*70 net67
*71 net33
*72 net34
*73 net35
*74 net36
*75 net37
*76 net38
*77 net39
*78 net68
*79 net78
*80 net79
*81 net80
*82 net81
*83 net82
*84 net83
*85 net84
*86 net85
*87 net86
*88 net87
*89 net69
*90 net88
*91 net89
*92 net90
*93 net91
*94 net92
*95 net93
*96 net94
*97 net95
*98 net96
*99 net97
*100 net70
*101 net98
*102 net99
*103 net100
*104 net101
*105 net102
*106 net103
*107 net104
*108 net105
*109 net71
*110 net72
*111 net73
*112 net74
*113 net75
*114 net76
*115 net77
*116 rst_i
*119 wbs_ack_o
*120 wbs_adr_i[0]
*121 wbs_adr_i[10]
*122 wbs_adr_i[11]
*123 wbs_adr_i[12]
*124 wbs_adr_i[13]
*125 wbs_adr_i[14]
*126 wbs_adr_i[15]
*127 wbs_adr_i[16]
*128 wbs_adr_i[17]
*129 wbs_adr_i[18]
*130 wbs_adr_i[19]
*131 wbs_adr_i[1]
*132 wbs_adr_i[20]
*133 wbs_adr_i[21]
*134 wbs_adr_i[22]
*135 wbs_adr_i[23]
*136 wbs_adr_i[24]
*137 wbs_adr_i[25]
*138 wbs_adr_i[26]
*139 wbs_adr_i[27]
*140 wbs_adr_i[28]
*141 wbs_adr_i[29]
*142 wbs_adr_i[2]
*143 wbs_adr_i[30]
*144 wbs_adr_i[31]
*145 wbs_adr_i[3]
*146 wbs_adr_i[4]
*147 wbs_adr_i[5]
*148 wbs_adr_i[6]
*149 wbs_adr_i[7]
*150 wbs_adr_i[8]
*151 wbs_adr_i[9]
*152 wbs_cyc_i
*153 wbs_dat_i[0]
*154 wbs_dat_i[10]
*155 wbs_dat_i[11]
*156 wbs_dat_i[12]
*157 wbs_dat_i[13]
*158 wbs_dat_i[14]
*159 wbs_dat_i[15]
*160 wbs_dat_i[16]
*161 wbs_dat_i[17]
*162 wbs_dat_i[18]
*163 wbs_dat_i[19]
*164 wbs_dat_i[1]
*165 wbs_dat_i[20]
*166 wbs_dat_i[21]
*167 wbs_dat_i[22]
*168 wbs_dat_i[23]
*169 wbs_dat_i[24]
*170 wbs_dat_i[25]
*171 wbs_dat_i[26]
*172 wbs_dat_i[27]
*173 wbs_dat_i[28]
*174 wbs_dat_i[29]
*175 wbs_dat_i[2]
*176 wbs_dat_i[30]
*177 wbs_dat_i[31]
*178 wbs_dat_i[3]
*179 wbs_dat_i[4]
*180 wbs_dat_i[5]
*181 wbs_dat_i[6]
*182 wbs_dat_i[7]
*183 wbs_dat_i[8]
*184 wbs_dat_i[9]
*185 net106
*186 net115
*187 net116
*188 net117
*189 net118
*190 net119
*191 net120
*192 net121
*193 net122
*194 net123
*195 net124
*196 net107
*197 net125
*198 net126
*199 net127
*200 net128
*201 net129
*202 net130
*203 net131
*204 net132
*205 net133
*206 net134
*207 net108
*208 net135
*209 net136
*210 net109
*211 net110
*212 wbs_dat_o[5]
*213 net111
*214 net112
*215 net113
*216 net114
*217 wbs_sel_i[0]
*218 wbs_sel_i[1]
*219 wbs_sel_i[2]
*220 wbs_sel_i[3]
*221 wbs_stb_i
*222 wbs_we_i
*223 _000_
*224 _001_
*225 _002_
*226 _003_
*227 _004_
*228 _005_
*229 _006_
*230 _007_
*231 _008_
*232 _009_
*233 _010_
*234 _011_
*235 _012_
*236 _013_
*237 _014_
*238 net1
*239 net10
*240 net11
*241 net12
*242 net13
*243 net14
*244 net15
*245 net16
*246 net17
*247 net18
*248 net19
*249 net2
*250 net20
*251 net21
*252 net22
*253 net23
*254 net24
*255 net25
*256 net26
*257 net27
*258 net28
*259 net29
*260 net3
*261 net4
*262 net5
*263 net6
*264 net7
*265 net8
*266 net9
*267 ANTENNA__015__A
*268 ANTENNA__024__C
*269 ANTENNA__024__D
*270 ANTENNA__029__A3
*271 ANTENNA__138__A
*272 ANTENNA_input10_A
*273 ANTENNA_input11_A
*274 ANTENNA_input12_A
*275 ANTENNA_input13_A
*276 ANTENNA_input14_A
*277 ANTENNA_input15_A
*278 ANTENNA_input16_A
*279 ANTENNA_input17_A
*280 ANTENNA_input18_A
*281 ANTENNA_input19_A
*282 ANTENNA_input1_A
*283 ANTENNA_input20_A
*284 ANTENNA_input21_A
*285 ANTENNA_input22_A
*286 ANTENNA_input23_A
*287 ANTENNA_input24_A
*288 ANTENNA_input25_A
*289 ANTENNA_input26_A
*290 ANTENNA_input27_A
*291 ANTENNA_input2_A
*292 ANTENNA_input3_A
*293 ANTENNA_input4_A
*294 ANTENNA_input5_A
*295 ANTENNA_input6_A
*296 ANTENNA_input7_A
*297 ANTENNA_input8_A
*298 ANTENNA_input9_A
*299 ANTENNA_output28_A
*300 FILLER_0_103
*301 FILLER_0_107
*302 FILLER_0_111
*303 FILLER_0_113
*304 FILLER_0_125
*305 FILLER_0_132
*306 FILLER_0_14
*307 FILLER_0_141
*308 FILLER_0_147
*309 FILLER_0_152
*310 FILLER_0_164
*311 FILLER_0_172
*312 FILLER_0_18
*313 FILLER_0_184
*314 FILLER_0_189
*315 FILLER_0_194
*316 FILLER_0_200
*317 FILLER_0_204
*318 FILLER_0_208
*319 FILLER_0_214
*320 FILLER_0_218
*321 FILLER_0_22
*322 FILLER_0_228
*323 FILLER_0_233
*324 FILLER_0_237
*325 FILLER_0_241
*326 FILLER_0_245
*327 FILLER_0_250
*328 FILLER_0_256
*329 FILLER_0_260
*330 FILLER_0_264
*331 FILLER_0_270
*332 FILLER_0_274
*333 FILLER_0_284
*334 FILLER_0_289
*335 FILLER_0_293
*336 FILLER_0_3
*337 FILLER_0_302
*338 FILLER_0_312
*339 FILLER_0_316
*340 FILLER_0_32
*341 FILLER_0_321
*342 FILLER_0_327
*343 FILLER_0_331
*344 FILLER_0_335
*345 FILLER_0_340
*346 FILLER_0_346
*347 FILLER_0_350
*348 FILLER_0_354
*349 FILLER_0_358
*350 FILLER_0_368
*351 FILLER_0_372
*352 FILLER_0_377
*353 FILLER_0_383
*354 FILLER_0_387
*355 FILLER_0_391
*356 FILLER_0_396
*357 FILLER_0_402
*358 FILLER_0_406
*359 FILLER_0_415
*360 FILLER_0_419
*361 FILLER_0_424
*362 FILLER_0_428
*363 FILLER_0_433
*364 FILLER_0_44
*365 FILLER_0_440
*366 FILLER_0_444
*367 FILLER_0_452
*368 FILLER_0_458
*369 FILLER_0_462
*370 FILLER_0_471
*371 FILLER_0_475
*372 FILLER_0_482
*373 FILLER_0_487
*374 FILLER_0_492
*375 FILLER_0_497
*376 FILLER_0_501
*377 FILLER_0_505
*378 FILLER_0_509
*379 FILLER_0_515
*380 FILLER_0_519
*381 FILLER_0_523
*382 FILLER_0_527
*383 FILLER_0_531
*384 FILLER_0_536
*385 FILLER_0_540
*386 FILLER_0_546
*387 FILLER_0_552
*388 FILLER_0_556
*389 FILLER_0_561
*390 FILLER_0_565
*391 FILLER_0_571
*392 FILLER_0_575
*393 FILLER_0_584
*394 FILLER_0_592
*395 FILLER_0_596
*396 FILLER_0_60
*397 FILLER_0_603
*398 FILLER_0_609
*399 FILLER_0_614
*400 FILLER_0_617
*401 FILLER_0_621
*402 FILLER_0_72
*403 FILLER_0_78
*404 FILLER_0_8
*405 FILLER_0_82
*406 FILLER_0_85
*407 FILLER_0_97
*408 FILLER_100_10
*409 FILLER_100_109
*410 FILLER_100_121
*411 FILLER_100_133
*412 FILLER_100_139
*413 FILLER_100_141
*414 FILLER_100_153
*415 FILLER_100_165
*416 FILLER_100_177
*417 FILLER_100_189
*418 FILLER_100_195
*419 FILLER_100_197
*420 FILLER_100_209
*421 FILLER_100_22
*422 FILLER_100_221
*423 FILLER_100_233
*424 FILLER_100_245
*425 FILLER_100_251
*426 FILLER_100_253
*427 FILLER_100_265
*428 FILLER_100_277
*429 FILLER_100_289
*430 FILLER_100_29
*431 FILLER_100_301
*432 FILLER_100_307
*433 FILLER_100_309
*434 FILLER_100_321
*435 FILLER_100_333
*436 FILLER_100_345
*437 FILLER_100_357
*438 FILLER_100_363
*439 FILLER_100_365
*440 FILLER_100_377
*441 FILLER_100_389
*442 FILLER_100_401
*443 FILLER_100_41
*444 FILLER_100_413
*445 FILLER_100_419
*446 FILLER_100_421
*447 FILLER_100_433
*448 FILLER_100_445
*449 FILLER_100_457
*450 FILLER_100_469
*451 FILLER_100_475
*452 FILLER_100_477
*453 FILLER_100_489
*454 FILLER_100_5
*455 FILLER_100_501
*456 FILLER_100_513
*457 FILLER_100_525
*458 FILLER_100_53
*459 FILLER_100_531
*460 FILLER_100_533
*461 FILLER_100_545
*462 FILLER_100_557
*463 FILLER_100_569
*464 FILLER_100_581
*465 FILLER_100_587
*466 FILLER_100_589
*467 FILLER_100_601
*468 FILLER_100_613
*469 FILLER_100_618
*470 FILLER_100_623
*471 FILLER_100_65
*472 FILLER_100_77
*473 FILLER_100_83
*474 FILLER_100_85
*475 FILLER_100_97
*476 FILLER_101_100
*477 FILLER_101_106
*478 FILLER_101_110
*479 FILLER_101_113
*480 FILLER_101_117
*481 FILLER_101_128
*482 FILLER_101_134
*483 FILLER_101_141
*484 FILLER_101_145
*485 FILLER_101_151
*486 FILLER_101_16
*487 FILLER_101_162
*488 FILLER_101_172
*489 FILLER_101_179
*490 FILLER_101_185
*491 FILLER_101_194
*492 FILLER_101_197
*493 FILLER_101_201
*494 FILLER_101_209
*495 FILLER_101_213
*496 FILLER_101_218
*497 FILLER_101_22
*498 FILLER_101_225
*499 FILLER_101_230
*500 FILLER_101_235
*501 FILLER_101_246
*502 FILLER_101_256
*503 FILLER_101_26
*504 FILLER_101_263
*505 FILLER_101_269
*506 FILLER_101_278
*507 FILLER_101_281
*508 FILLER_101_286
*509 FILLER_101_29
*510 FILLER_101_297
*511 FILLER_101_303
*512 FILLER_101_307
*513 FILLER_101_309
*514 FILLER_101_314
*515 FILLER_101_320
*516 FILLER_101_33
*517 FILLER_101_331
*518 FILLER_101_335
*519 FILLER_101_340
*520 FILLER_101_344
*521 FILLER_101_348
*522 FILLER_101_353
*523 FILLER_101_361
*524 FILLER_101_368
*525 FILLER_101_373
*526 FILLER_101_377
*527 FILLER_101_381
*528 FILLER_101_387
*529 FILLER_101_391
*530 FILLER_101_393
*531 FILLER_101_398
*532 FILLER_101_404
*533 FILLER_101_415
*534 FILLER_101_419
*535 FILLER_101_424
*536 FILLER_101_428
*537 FILLER_101_432
*538 FILLER_101_438
*539 FILLER_101_44
*540 FILLER_101_446
*541 FILLER_101_452
*542 FILLER_101_457
*543 FILLER_101_466
*544 FILLER_101_471
*545 FILLER_101_475
*546 FILLER_101_477
*547 FILLER_101_483
*548 FILLER_101_488
*549 FILLER_101_499
*550 FILLER_101_50
*551 FILLER_101_503
*552 FILLER_101_508
*553 FILLER_101_512
*554 FILLER_101_516
*555 FILLER_101_522
*556 FILLER_101_530
*557 FILLER_101_536
*558 FILLER_101_541
*559 FILLER_101_550
*560 FILLER_101_556
*561 FILLER_101_561
*562 FILLER_101_567
*563 FILLER_101_57
*564 FILLER_101_572
*565 FILLER_101_580
*566 FILLER_101_584
*567 FILLER_101_592
*568 FILLER_101_601
*569 FILLER_101_606
*570 FILLER_101_61
*571 FILLER_101_610
*572 FILLER_101_614
*573 FILLER_101_620
*574 FILLER_101_624
*575 FILLER_101_67
*576 FILLER_101_78
*577 FILLER_101_88
*578 FILLER_101_9
*579 FILLER_101_95
*580 FILLER_10_109
*581 FILLER_10_121
*582 FILLER_10_133
*583 FILLER_10_139
*584 FILLER_10_141
*585 FILLER_10_15
*586 FILLER_10_153
*587 FILLER_10_165
*588 FILLER_10_177
*589 FILLER_10_189
*590 FILLER_10_195
*591 FILLER_10_197
*592 FILLER_10_209
*593 FILLER_10_221
*594 FILLER_10_233
*595 FILLER_10_245
*596 FILLER_10_251
*597 FILLER_10_253
*598 FILLER_10_265
*599 FILLER_10_27
*600 FILLER_10_277
*601 FILLER_10_289
*602 FILLER_10_29
*603 FILLER_10_3
*604 FILLER_10_301
*605 FILLER_10_307
*606 FILLER_10_309
*607 FILLER_10_321
*608 FILLER_10_333
*609 FILLER_10_345
*610 FILLER_10_357
*611 FILLER_10_363
*612 FILLER_10_365
*613 FILLER_10_377
*614 FILLER_10_389
*615 FILLER_10_401
*616 FILLER_10_41
*617 FILLER_10_413
*618 FILLER_10_419
*619 FILLER_10_421
*620 FILLER_10_433
*621 FILLER_10_445
*622 FILLER_10_457
*623 FILLER_10_469
*624 FILLER_10_475
*625 FILLER_10_477
*626 FILLER_10_489
*627 FILLER_10_501
*628 FILLER_10_513
*629 FILLER_10_525
*630 FILLER_10_53
*631 FILLER_10_531
*632 FILLER_10_533
*633 FILLER_10_545
*634 FILLER_10_557
*635 FILLER_10_569
*636 FILLER_10_581
*637 FILLER_10_587
*638 FILLER_10_589
*639 FILLER_10_601
*640 FILLER_10_613
*641 FILLER_10_65
*642 FILLER_10_77
*643 FILLER_10_83
*644 FILLER_10_85
*645 FILLER_10_97
*646 FILLER_11_105
*647 FILLER_11_111
*648 FILLER_11_113
*649 FILLER_11_125
*650 FILLER_11_137
*651 FILLER_11_149
*652 FILLER_11_15
*653 FILLER_11_161
*654 FILLER_11_167
*655 FILLER_11_169
*656 FILLER_11_181
*657 FILLER_11_193
*658 FILLER_11_205
*659 FILLER_11_217
*660 FILLER_11_223
*661 FILLER_11_225
*662 FILLER_11_237
*663 FILLER_11_249
*664 FILLER_11_261
*665 FILLER_11_27
*666 FILLER_11_273
*667 FILLER_11_279
*668 FILLER_11_281
*669 FILLER_11_293
*670 FILLER_11_3
*671 FILLER_11_305
*672 FILLER_11_317
*673 FILLER_11_329
*674 FILLER_11_335
*675 FILLER_11_337
*676 FILLER_11_349
*677 FILLER_11_361
*678 FILLER_11_373
*679 FILLER_11_385
*680 FILLER_11_39
*681 FILLER_11_391
*682 FILLER_11_393
*683 FILLER_11_405
*684 FILLER_11_417
*685 FILLER_11_429
*686 FILLER_11_441
*687 FILLER_11_447
*688 FILLER_11_449
*689 FILLER_11_461
*690 FILLER_11_473
*691 FILLER_11_485
*692 FILLER_11_497
*693 FILLER_11_503
*694 FILLER_11_505
*695 FILLER_11_51
*696 FILLER_11_517
*697 FILLER_11_529
*698 FILLER_11_541
*699 FILLER_11_55
*700 FILLER_11_553
*701 FILLER_11_559
*702 FILLER_11_561
*703 FILLER_11_57
*704 FILLER_11_573
*705 FILLER_11_585
*706 FILLER_11_597
*707 FILLER_11_609
*708 FILLER_11_615
*709 FILLER_11_617
*710 FILLER_11_69
*711 FILLER_11_81
*712 FILLER_11_93
*713 FILLER_12_109
*714 FILLER_12_121
*715 FILLER_12_133
*716 FILLER_12_139
*717 FILLER_12_141
*718 FILLER_12_15
*719 FILLER_12_153
*720 FILLER_12_165
*721 FILLER_12_177
*722 FILLER_12_189
*723 FILLER_12_195
*724 FILLER_12_197
*725 FILLER_12_209
*726 FILLER_12_221
*727 FILLER_12_233
*728 FILLER_12_245
*729 FILLER_12_251
*730 FILLER_12_253
*731 FILLER_12_265
*732 FILLER_12_27
*733 FILLER_12_277
*734 FILLER_12_289
*735 FILLER_12_29
*736 FILLER_12_3
*737 FILLER_12_301
*738 FILLER_12_307
*739 FILLER_12_309
*740 FILLER_12_321
*741 FILLER_12_333
*742 FILLER_12_345
*743 FILLER_12_357
*744 FILLER_12_363
*745 FILLER_12_365
*746 FILLER_12_377
*747 FILLER_12_389
*748 FILLER_12_401
*749 FILLER_12_41
*750 FILLER_12_413
*751 FILLER_12_419
*752 FILLER_12_421
*753 FILLER_12_433
*754 FILLER_12_445
*755 FILLER_12_457
*756 FILLER_12_469
*757 FILLER_12_475
*758 FILLER_12_477
*759 FILLER_12_489
*760 FILLER_12_501
*761 FILLER_12_513
*762 FILLER_12_525
*763 FILLER_12_53
*764 FILLER_12_531
*765 FILLER_12_533
*766 FILLER_12_545
*767 FILLER_12_557
*768 FILLER_12_569
*769 FILLER_12_581
*770 FILLER_12_587
*771 FILLER_12_589
*772 FILLER_12_601
*773 FILLER_12_613
*774 FILLER_12_65
*775 FILLER_12_77
*776 FILLER_12_83
*777 FILLER_12_85
*778 FILLER_12_97
*779 FILLER_13_105
*780 FILLER_13_111
*781 FILLER_13_113
*782 FILLER_13_125
*783 FILLER_13_137
*784 FILLER_13_149
*785 FILLER_13_15
*786 FILLER_13_161
*787 FILLER_13_167
*788 FILLER_13_169
*789 FILLER_13_181
*790 FILLER_13_193
*791 FILLER_13_205
*792 FILLER_13_217
*793 FILLER_13_223
*794 FILLER_13_225
*795 FILLER_13_237
*796 FILLER_13_249
*797 FILLER_13_261
*798 FILLER_13_27
*799 FILLER_13_273
*800 FILLER_13_279
*801 FILLER_13_281
*802 FILLER_13_293
*803 FILLER_13_3
*804 FILLER_13_305
*805 FILLER_13_317
*806 FILLER_13_329
*807 FILLER_13_335
*808 FILLER_13_337
*809 FILLER_13_349
*810 FILLER_13_361
*811 FILLER_13_373
*812 FILLER_13_385
*813 FILLER_13_39
*814 FILLER_13_391
*815 FILLER_13_393
*816 FILLER_13_405
*817 FILLER_13_417
*818 FILLER_13_429
*819 FILLER_13_441
*820 FILLER_13_447
*821 FILLER_13_449
*822 FILLER_13_461
*823 FILLER_13_473
*824 FILLER_13_485
*825 FILLER_13_497
*826 FILLER_13_503
*827 FILLER_13_505
*828 FILLER_13_51
*829 FILLER_13_517
*830 FILLER_13_529
*831 FILLER_13_541
*832 FILLER_13_55
*833 FILLER_13_553
*834 FILLER_13_559
*835 FILLER_13_561
*836 FILLER_13_57
*837 FILLER_13_573
*838 FILLER_13_585
*839 FILLER_13_597
*840 FILLER_13_609
*841 FILLER_13_615
*842 FILLER_13_617
*843 FILLER_13_69
*844 FILLER_13_81
*845 FILLER_13_93
*846 FILLER_14_109
*847 FILLER_14_121
*848 FILLER_14_133
*849 FILLER_14_139
*850 FILLER_14_141
*851 FILLER_14_15
*852 FILLER_14_153
*853 FILLER_14_165
*854 FILLER_14_177
*855 FILLER_14_189
*856 FILLER_14_195
*857 FILLER_14_197
*858 FILLER_14_209
*859 FILLER_14_221
*860 FILLER_14_233
*861 FILLER_14_245
*862 FILLER_14_251
*863 FILLER_14_253
*864 FILLER_14_265
*865 FILLER_14_27
*866 FILLER_14_277
*867 FILLER_14_289
*868 FILLER_14_29
*869 FILLER_14_3
*870 FILLER_14_301
*871 FILLER_14_307
*872 FILLER_14_309
*873 FILLER_14_321
*874 FILLER_14_333
*875 FILLER_14_345
*876 FILLER_14_357
*877 FILLER_14_363
*878 FILLER_14_365
*879 FILLER_14_377
*880 FILLER_14_389
*881 FILLER_14_401
*882 FILLER_14_41
*883 FILLER_14_413
*884 FILLER_14_419
*885 FILLER_14_421
*886 FILLER_14_433
*887 FILLER_14_445
*888 FILLER_14_457
*889 FILLER_14_469
*890 FILLER_14_475
*891 FILLER_14_477
*892 FILLER_14_489
*893 FILLER_14_501
*894 FILLER_14_513
*895 FILLER_14_525
*896 FILLER_14_53
*897 FILLER_14_531
*898 FILLER_14_533
*899 FILLER_14_545
*900 FILLER_14_557
*901 FILLER_14_569
*902 FILLER_14_581
*903 FILLER_14_587
*904 FILLER_14_589
*905 FILLER_14_601
*906 FILLER_14_613
*907 FILLER_14_65
*908 FILLER_14_77
*909 FILLER_14_83
*910 FILLER_14_85
*911 FILLER_14_97
*912 FILLER_15_105
*913 FILLER_15_111
*914 FILLER_15_113
*915 FILLER_15_125
*916 FILLER_15_137
*917 FILLER_15_149
*918 FILLER_15_15
*919 FILLER_15_161
*920 FILLER_15_167
*921 FILLER_15_169
*922 FILLER_15_181
*923 FILLER_15_193
*924 FILLER_15_205
*925 FILLER_15_217
*926 FILLER_15_223
*927 FILLER_15_225
*928 FILLER_15_237
*929 FILLER_15_249
*930 FILLER_15_261
*931 FILLER_15_27
*932 FILLER_15_273
*933 FILLER_15_279
*934 FILLER_15_281
*935 FILLER_15_293
*936 FILLER_15_3
*937 FILLER_15_305
*938 FILLER_15_317
*939 FILLER_15_329
*940 FILLER_15_335
*941 FILLER_15_337
*942 FILLER_15_349
*943 FILLER_15_361
*944 FILLER_15_373
*945 FILLER_15_385
*946 FILLER_15_39
*947 FILLER_15_391
*948 FILLER_15_393
*949 FILLER_15_405
*950 FILLER_15_417
*951 FILLER_15_429
*952 FILLER_15_441
*953 FILLER_15_447
*954 FILLER_15_449
*955 FILLER_15_461
*956 FILLER_15_473
*957 FILLER_15_485
*958 FILLER_15_497
*959 FILLER_15_503
*960 FILLER_15_505
*961 FILLER_15_51
*962 FILLER_15_517
*963 FILLER_15_529
*964 FILLER_15_541
*965 FILLER_15_55
*966 FILLER_15_553
*967 FILLER_15_559
*968 FILLER_15_561
*969 FILLER_15_57
*970 FILLER_15_573
*971 FILLER_15_585
*972 FILLER_15_597
*973 FILLER_15_609
*974 FILLER_15_615
*975 FILLER_15_617
*976 FILLER_15_69
*977 FILLER_15_81
*978 FILLER_15_93
*979 FILLER_16_109
*980 FILLER_16_121
*981 FILLER_16_133
*982 FILLER_16_139
*983 FILLER_16_141
*984 FILLER_16_15
*985 FILLER_16_153
*986 FILLER_16_165
*987 FILLER_16_177
*988 FILLER_16_189
*989 FILLER_16_195
*990 FILLER_16_197
*991 FILLER_16_209
*992 FILLER_16_221
*993 FILLER_16_233
*994 FILLER_16_245
*995 FILLER_16_251
*996 FILLER_16_253
*997 FILLER_16_265
*998 FILLER_16_27
*999 FILLER_16_277
*1000 FILLER_16_289
*1001 FILLER_16_29
*1002 FILLER_16_3
*1003 FILLER_16_301
*1004 FILLER_16_307
*1005 FILLER_16_309
*1006 FILLER_16_321
*1007 FILLER_16_333
*1008 FILLER_16_345
*1009 FILLER_16_357
*1010 FILLER_16_363
*1011 FILLER_16_365
*1012 FILLER_16_377
*1013 FILLER_16_389
*1014 FILLER_16_401
*1015 FILLER_16_41
*1016 FILLER_16_413
*1017 FILLER_16_419
*1018 FILLER_16_421
*1019 FILLER_16_433
*1020 FILLER_16_445
*1021 FILLER_16_457
*1022 FILLER_16_469
*1023 FILLER_16_475
*1024 FILLER_16_477
*1025 FILLER_16_489
*1026 FILLER_16_501
*1027 FILLER_16_513
*1028 FILLER_16_525
*1029 FILLER_16_53
*1030 FILLER_16_531
*1031 FILLER_16_533
*1032 FILLER_16_545
*1033 FILLER_16_557
*1034 FILLER_16_569
*1035 FILLER_16_581
*1036 FILLER_16_587
*1037 FILLER_16_589
*1038 FILLER_16_601
*1039 FILLER_16_613
*1040 FILLER_16_65
*1041 FILLER_16_77
*1042 FILLER_16_83
*1043 FILLER_16_85
*1044 FILLER_16_97
*1045 FILLER_17_105
*1046 FILLER_17_111
*1047 FILLER_17_113
*1048 FILLER_17_125
*1049 FILLER_17_137
*1050 FILLER_17_149
*1051 FILLER_17_15
*1052 FILLER_17_161
*1053 FILLER_17_167
*1054 FILLER_17_169
*1055 FILLER_17_181
*1056 FILLER_17_193
*1057 FILLER_17_205
*1058 FILLER_17_217
*1059 FILLER_17_223
*1060 FILLER_17_225
*1061 FILLER_17_237
*1062 FILLER_17_249
*1063 FILLER_17_261
*1064 FILLER_17_27
*1065 FILLER_17_273
*1066 FILLER_17_279
*1067 FILLER_17_281
*1068 FILLER_17_293
*1069 FILLER_17_3
*1070 FILLER_17_305
*1071 FILLER_17_317
*1072 FILLER_17_329
*1073 FILLER_17_335
*1074 FILLER_17_337
*1075 FILLER_17_349
*1076 FILLER_17_361
*1077 FILLER_17_373
*1078 FILLER_17_385
*1079 FILLER_17_39
*1080 FILLER_17_391
*1081 FILLER_17_393
*1082 FILLER_17_405
*1083 FILLER_17_417
*1084 FILLER_17_429
*1085 FILLER_17_441
*1086 FILLER_17_447
*1087 FILLER_17_449
*1088 FILLER_17_461
*1089 FILLER_17_473
*1090 FILLER_17_485
*1091 FILLER_17_497
*1092 FILLER_17_503
*1093 FILLER_17_505
*1094 FILLER_17_51
*1095 FILLER_17_517
*1096 FILLER_17_529
*1097 FILLER_17_541
*1098 FILLER_17_55
*1099 FILLER_17_553
*1100 FILLER_17_559
*1101 FILLER_17_561
*1102 FILLER_17_57
*1103 FILLER_17_573
*1104 FILLER_17_585
*1105 FILLER_17_597
*1106 FILLER_17_609
*1107 FILLER_17_615
*1108 FILLER_17_617
*1109 FILLER_17_69
*1110 FILLER_17_81
*1111 FILLER_17_93
*1112 FILLER_18_109
*1113 FILLER_18_121
*1114 FILLER_18_133
*1115 FILLER_18_139
*1116 FILLER_18_141
*1117 FILLER_18_15
*1118 FILLER_18_153
*1119 FILLER_18_165
*1120 FILLER_18_177
*1121 FILLER_18_189
*1122 FILLER_18_195
*1123 FILLER_18_197
*1124 FILLER_18_209
*1125 FILLER_18_221
*1126 FILLER_18_233
*1127 FILLER_18_245
*1128 FILLER_18_251
*1129 FILLER_18_253
*1130 FILLER_18_265
*1131 FILLER_18_27
*1132 FILLER_18_277
*1133 FILLER_18_289
*1134 FILLER_18_29
*1135 FILLER_18_3
*1136 FILLER_18_301
*1137 FILLER_18_307
*1138 FILLER_18_309
*1139 FILLER_18_321
*1140 FILLER_18_333
*1141 FILLER_18_345
*1142 FILLER_18_357
*1143 FILLER_18_363
*1144 FILLER_18_365
*1145 FILLER_18_377
*1146 FILLER_18_389
*1147 FILLER_18_401
*1148 FILLER_18_41
*1149 FILLER_18_413
*1150 FILLER_18_419
*1151 FILLER_18_421
*1152 FILLER_18_433
*1153 FILLER_18_445
*1154 FILLER_18_457
*1155 FILLER_18_469
*1156 FILLER_18_475
*1157 FILLER_18_477
*1158 FILLER_18_489
*1159 FILLER_18_501
*1160 FILLER_18_513
*1161 FILLER_18_525
*1162 FILLER_18_53
*1163 FILLER_18_531
*1164 FILLER_18_533
*1165 FILLER_18_545
*1166 FILLER_18_557
*1167 FILLER_18_569
*1168 FILLER_18_581
*1169 FILLER_18_587
*1170 FILLER_18_589
*1171 FILLER_18_601
*1172 FILLER_18_613
*1173 FILLER_18_65
*1174 FILLER_18_77
*1175 FILLER_18_83
*1176 FILLER_18_85
*1177 FILLER_18_97
*1178 FILLER_19_105
*1179 FILLER_19_111
*1180 FILLER_19_113
*1181 FILLER_19_125
*1182 FILLER_19_137
*1183 FILLER_19_149
*1184 FILLER_19_15
*1185 FILLER_19_161
*1186 FILLER_19_167
*1187 FILLER_19_169
*1188 FILLER_19_181
*1189 FILLER_19_193
*1190 FILLER_19_205
*1191 FILLER_19_217
*1192 FILLER_19_223
*1193 FILLER_19_225
*1194 FILLER_19_237
*1195 FILLER_19_249
*1196 FILLER_19_261
*1197 FILLER_19_27
*1198 FILLER_19_273
*1199 FILLER_19_279
*1200 FILLER_19_281
*1201 FILLER_19_293
*1202 FILLER_19_3
*1203 FILLER_19_305
*1204 FILLER_19_317
*1205 FILLER_19_329
*1206 FILLER_19_335
*1207 FILLER_19_337
*1208 FILLER_19_349
*1209 FILLER_19_361
*1210 FILLER_19_373
*1211 FILLER_19_385
*1212 FILLER_19_39
*1213 FILLER_19_391
*1214 FILLER_19_393
*1215 FILLER_19_405
*1216 FILLER_19_417
*1217 FILLER_19_429
*1218 FILLER_19_441
*1219 FILLER_19_447
*1220 FILLER_19_449
*1221 FILLER_19_461
*1222 FILLER_19_473
*1223 FILLER_19_485
*1224 FILLER_19_497
*1225 FILLER_19_503
*1226 FILLER_19_505
*1227 FILLER_19_51
*1228 FILLER_19_517
*1229 FILLER_19_529
*1230 FILLER_19_541
*1231 FILLER_19_55
*1232 FILLER_19_553
*1233 FILLER_19_559
*1234 FILLER_19_561
*1235 FILLER_19_57
*1236 FILLER_19_573
*1237 FILLER_19_585
*1238 FILLER_19_597
*1239 FILLER_19_609
*1240 FILLER_19_615
*1241 FILLER_19_617
*1242 FILLER_19_69
*1243 FILLER_19_81
*1244 FILLER_19_93
*1245 FILLER_1_105
*1246 FILLER_1_11
*1247 FILLER_1_111
*1248 FILLER_1_113
*1249 FILLER_1_125
*1250 FILLER_1_137
*1251 FILLER_1_146
*1252 FILLER_1_150
*1253 FILLER_1_162
*1254 FILLER_1_169
*1255 FILLER_1_181
*1256 FILLER_1_193
*1257 FILLER_1_205
*1258 FILLER_1_217
*1259 FILLER_1_221
*1260 FILLER_1_225
*1261 FILLER_1_23
*1262 FILLER_1_237
*1263 FILLER_1_249
*1264 FILLER_1_255
*1265 FILLER_1_260
*1266 FILLER_1_266
*1267 FILLER_1_278
*1268 FILLER_1_294
*1269 FILLER_1_306
*1270 FILLER_1_318
*1271 FILLER_1_326
*1272 FILLER_1_331
*1273 FILLER_1_335
*1274 FILLER_1_342
*1275 FILLER_1_35
*1276 FILLER_1_354
*1277 FILLER_1_366
*1278 FILLER_1_370
*1279 FILLER_1_374
*1280 FILLER_1_382
*1281 FILLER_1_386
*1282 FILLER_1_393
*1283 FILLER_1_405
*1284 FILLER_1_417
*1285 FILLER_1_429
*1286 FILLER_1_441
*1287 FILLER_1_447
*1288 FILLER_1_449
*1289 FILLER_1_461
*1290 FILLER_1_466
*1291 FILLER_1_47
*1292 FILLER_1_478
*1293 FILLER_1_488
*1294 FILLER_1_492
*1295 FILLER_1_505
*1296 FILLER_1_517
*1297 FILLER_1_529
*1298 FILLER_1_537
*1299 FILLER_1_549
*1300 FILLER_1_55
*1301 FILLER_1_553
*1302 FILLER_1_559
*1303 FILLER_1_561
*1304 FILLER_1_57
*1305 FILLER_1_573
*1306 FILLER_1_585
*1307 FILLER_1_597
*1308 FILLER_1_603
*1309 FILLER_1_606
*1310 FILLER_1_614
*1311 FILLER_1_617
*1312 FILLER_1_623
*1313 FILLER_1_69
*1314 FILLER_1_7
*1315 FILLER_1_81
*1316 FILLER_1_93
*1317 FILLER_20_109
*1318 FILLER_20_121
*1319 FILLER_20_133
*1320 FILLER_20_139
*1321 FILLER_20_141
*1322 FILLER_20_15
*1323 FILLER_20_153
*1324 FILLER_20_165
*1325 FILLER_20_177
*1326 FILLER_20_189
*1327 FILLER_20_195
*1328 FILLER_20_197
*1329 FILLER_20_209
*1330 FILLER_20_221
*1331 FILLER_20_233
*1332 FILLER_20_245
*1333 FILLER_20_251
*1334 FILLER_20_253
*1335 FILLER_20_265
*1336 FILLER_20_27
*1337 FILLER_20_277
*1338 FILLER_20_289
*1339 FILLER_20_29
*1340 FILLER_20_3
*1341 FILLER_20_301
*1342 FILLER_20_307
*1343 FILLER_20_309
*1344 FILLER_20_321
*1345 FILLER_20_333
*1346 FILLER_20_345
*1347 FILLER_20_357
*1348 FILLER_20_363
*1349 FILLER_20_365
*1350 FILLER_20_377
*1351 FILLER_20_389
*1352 FILLER_20_401
*1353 FILLER_20_41
*1354 FILLER_20_413
*1355 FILLER_20_419
*1356 FILLER_20_421
*1357 FILLER_20_433
*1358 FILLER_20_445
*1359 FILLER_20_457
*1360 FILLER_20_469
*1361 FILLER_20_475
*1362 FILLER_20_477
*1363 FILLER_20_489
*1364 FILLER_20_501
*1365 FILLER_20_513
*1366 FILLER_20_525
*1367 FILLER_20_53
*1368 FILLER_20_531
*1369 FILLER_20_533
*1370 FILLER_20_545
*1371 FILLER_20_557
*1372 FILLER_20_569
*1373 FILLER_20_581
*1374 FILLER_20_587
*1375 FILLER_20_589
*1376 FILLER_20_601
*1377 FILLER_20_613
*1378 FILLER_20_65
*1379 FILLER_20_77
*1380 FILLER_20_83
*1381 FILLER_20_85
*1382 FILLER_20_97
*1383 FILLER_21_105
*1384 FILLER_21_111
*1385 FILLER_21_113
*1386 FILLER_21_125
*1387 FILLER_21_137
*1388 FILLER_21_149
*1389 FILLER_21_15
*1390 FILLER_21_161
*1391 FILLER_21_167
*1392 FILLER_21_169
*1393 FILLER_21_181
*1394 FILLER_21_193
*1395 FILLER_21_205
*1396 FILLER_21_217
*1397 FILLER_21_223
*1398 FILLER_21_225
*1399 FILLER_21_237
*1400 FILLER_21_249
*1401 FILLER_21_261
*1402 FILLER_21_27
*1403 FILLER_21_273
*1404 FILLER_21_279
*1405 FILLER_21_281
*1406 FILLER_21_293
*1407 FILLER_21_3
*1408 FILLER_21_305
*1409 FILLER_21_317
*1410 FILLER_21_329
*1411 FILLER_21_335
*1412 FILLER_21_337
*1413 FILLER_21_349
*1414 FILLER_21_361
*1415 FILLER_21_373
*1416 FILLER_21_385
*1417 FILLER_21_39
*1418 FILLER_21_391
*1419 FILLER_21_393
*1420 FILLER_21_405
*1421 FILLER_21_417
*1422 FILLER_21_429
*1423 FILLER_21_441
*1424 FILLER_21_447
*1425 FILLER_21_449
*1426 FILLER_21_461
*1427 FILLER_21_473
*1428 FILLER_21_485
*1429 FILLER_21_497
*1430 FILLER_21_503
*1431 FILLER_21_505
*1432 FILLER_21_51
*1433 FILLER_21_517
*1434 FILLER_21_529
*1435 FILLER_21_541
*1436 FILLER_21_55
*1437 FILLER_21_553
*1438 FILLER_21_559
*1439 FILLER_21_561
*1440 FILLER_21_57
*1441 FILLER_21_573
*1442 FILLER_21_585
*1443 FILLER_21_597
*1444 FILLER_21_609
*1445 FILLER_21_615
*1446 FILLER_21_617
*1447 FILLER_21_69
*1448 FILLER_21_81
*1449 FILLER_21_93
*1450 FILLER_22_109
*1451 FILLER_22_121
*1452 FILLER_22_133
*1453 FILLER_22_139
*1454 FILLER_22_141
*1455 FILLER_22_15
*1456 FILLER_22_153
*1457 FILLER_22_165
*1458 FILLER_22_177
*1459 FILLER_22_189
*1460 FILLER_22_195
*1461 FILLER_22_197
*1462 FILLER_22_209
*1463 FILLER_22_221
*1464 FILLER_22_233
*1465 FILLER_22_245
*1466 FILLER_22_251
*1467 FILLER_22_253
*1468 FILLER_22_265
*1469 FILLER_22_27
*1470 FILLER_22_277
*1471 FILLER_22_289
*1472 FILLER_22_29
*1473 FILLER_22_3
*1474 FILLER_22_301
*1475 FILLER_22_307
*1476 FILLER_22_309
*1477 FILLER_22_321
*1478 FILLER_22_333
*1479 FILLER_22_345
*1480 FILLER_22_357
*1481 FILLER_22_363
*1482 FILLER_22_365
*1483 FILLER_22_377
*1484 FILLER_22_389
*1485 FILLER_22_401
*1486 FILLER_22_41
*1487 FILLER_22_413
*1488 FILLER_22_419
*1489 FILLER_22_421
*1490 FILLER_22_433
*1491 FILLER_22_445
*1492 FILLER_22_457
*1493 FILLER_22_469
*1494 FILLER_22_475
*1495 FILLER_22_477
*1496 FILLER_22_489
*1497 FILLER_22_501
*1498 FILLER_22_513
*1499 FILLER_22_525
*1500 FILLER_22_53
*1501 FILLER_22_531
*1502 FILLER_22_533
*1503 FILLER_22_545
*1504 FILLER_22_557
*1505 FILLER_22_569
*1506 FILLER_22_581
*1507 FILLER_22_587
*1508 FILLER_22_589
*1509 FILLER_22_601
*1510 FILLER_22_613
*1511 FILLER_22_65
*1512 FILLER_22_77
*1513 FILLER_22_83
*1514 FILLER_22_85
*1515 FILLER_22_97
*1516 FILLER_23_105
*1517 FILLER_23_111
*1518 FILLER_23_113
*1519 FILLER_23_125
*1520 FILLER_23_137
*1521 FILLER_23_149
*1522 FILLER_23_15
*1523 FILLER_23_161
*1524 FILLER_23_167
*1525 FILLER_23_169
*1526 FILLER_23_181
*1527 FILLER_23_193
*1528 FILLER_23_205
*1529 FILLER_23_217
*1530 FILLER_23_223
*1531 FILLER_23_225
*1532 FILLER_23_237
*1533 FILLER_23_249
*1534 FILLER_23_261
*1535 FILLER_23_27
*1536 FILLER_23_273
*1537 FILLER_23_279
*1538 FILLER_23_281
*1539 FILLER_23_293
*1540 FILLER_23_3
*1541 FILLER_23_305
*1542 FILLER_23_317
*1543 FILLER_23_329
*1544 FILLER_23_335
*1545 FILLER_23_337
*1546 FILLER_23_349
*1547 FILLER_23_361
*1548 FILLER_23_373
*1549 FILLER_23_385
*1550 FILLER_23_39
*1551 FILLER_23_391
*1552 FILLER_23_393
*1553 FILLER_23_405
*1554 FILLER_23_417
*1555 FILLER_23_429
*1556 FILLER_23_441
*1557 FILLER_23_447
*1558 FILLER_23_449
*1559 FILLER_23_461
*1560 FILLER_23_473
*1561 FILLER_23_485
*1562 FILLER_23_497
*1563 FILLER_23_503
*1564 FILLER_23_505
*1565 FILLER_23_51
*1566 FILLER_23_517
*1567 FILLER_23_529
*1568 FILLER_23_541
*1569 FILLER_23_55
*1570 FILLER_23_553
*1571 FILLER_23_559
*1572 FILLER_23_561
*1573 FILLER_23_57
*1574 FILLER_23_573
*1575 FILLER_23_585
*1576 FILLER_23_597
*1577 FILLER_23_609
*1578 FILLER_23_615
*1579 FILLER_23_617
*1580 FILLER_23_69
*1581 FILLER_23_81
*1582 FILLER_23_93
*1583 FILLER_24_109
*1584 FILLER_24_121
*1585 FILLER_24_133
*1586 FILLER_24_139
*1587 FILLER_24_141
*1588 FILLER_24_15
*1589 FILLER_24_153
*1590 FILLER_24_165
*1591 FILLER_24_177
*1592 FILLER_24_189
*1593 FILLER_24_195
*1594 FILLER_24_197
*1595 FILLER_24_209
*1596 FILLER_24_221
*1597 FILLER_24_233
*1598 FILLER_24_245
*1599 FILLER_24_251
*1600 FILLER_24_253
*1601 FILLER_24_265
*1602 FILLER_24_27
*1603 FILLER_24_277
*1604 FILLER_24_289
*1605 FILLER_24_29
*1606 FILLER_24_3
*1607 FILLER_24_301
*1608 FILLER_24_307
*1609 FILLER_24_309
*1610 FILLER_24_321
*1611 FILLER_24_333
*1612 FILLER_24_345
*1613 FILLER_24_357
*1614 FILLER_24_363
*1615 FILLER_24_365
*1616 FILLER_24_377
*1617 FILLER_24_389
*1618 FILLER_24_401